Version 4
SHEET 1 1392 680
WIRE 400 -64 144 -64
WIRE -16 -32 -240 -32
WIRE 96 -32 -16 -32
WIRE 256 -32 96 -32
WIRE 288 -32 256 -32
WIRE 640 -32 288 -32
WIRE -240 -16 -240 -32
WIRE -16 0 -16 -32
WIRE 288 16 288 -32
WIRE 96 32 96 -32
WIRE 464 48 464 0
WIRE 400 64 400 -64
WIRE 432 64 400 64
WIRE -16 80 -16 64
WIRE 944 80 496 80
WIRE 1136 80 944 80
WIRE 432 96 400 96
WIRE 1136 96 1136 80
WIRE 288 128 288 80
WIRE 400 144 400 96
WIRE 624 144 400 144
WIRE -240 160 -240 64
WIRE 96 160 96 96
WIRE 96 160 -240 160
WIRE 144 160 144 -64
WIRE 144 160 96 160
WIRE 160 160 144 160
WIRE 272 176 224 176
WIRE 288 176 272 176
WIRE 400 176 352 176
WIRE 800 176 400 176
WIRE -80 192 -432 192
WIRE 144 192 -16 192
WIRE 160 192 144 192
WIRE -240 224 -240 160
WIRE -112 224 -240 224
WIRE 1136 224 1136 160
WIRE 192 240 192 208
WIRE 256 240 256 -32
WIRE 256 240 192 240
WIRE -240 272 -240 224
WIRE 400 272 400 256
WIRE 400 272 320 272
WIRE -112 288 -112 224
WIRE 144 288 144 192
WIRE 176 288 144 288
WIRE 272 288 272 176
WIRE 272 288 256 288
WIRE 320 288 320 272
WIRE 400 288 400 272
WIRE 800 288 800 256
WIRE 96 320 96 160
WIRE 512 336 448 336
WIRE 624 336 624 144
WIRE 624 336 592 336
WIRE 656 336 624 336
WIRE 752 336 720 336
WIRE 1136 352 1136 304
WIRE 144 384 144 288
WIRE 192 384 144 384
WIRE 272 384 272 288
WIRE 272 384 256 384
WIRE 320 384 320 352
WIRE 400 384 400 368
WIRE 400 384 320 384
WIRE 1248 400 1184 400
WIRE 400 432 400 384
WIRE 624 432 624 336
WIRE 800 432 800 368
WIRE -240 528 -240 352
WIRE -224 528 -240 528
WIRE -112 528 -112 352
WIRE -112 528 -224 528
WIRE 96 528 96 384
WIRE 96 528 -112 528
WIRE 400 544 400 512
WIRE 624 544 624 512
WIRE 624 544 400 544
WIRE 800 544 800 512
WIRE 800 544 624 544
WIRE -224 560 -224 528
WIRE 96 576 96 528
WIRE 944 576 944 80
WIRE 944 576 96 576
WIRE 1136 576 1136 432
WIRE 1136 576 944 576
WIRE 944 640 944 576
FLAG -16 80 0
FLAG -224 560 0
FLAG 288 128 0
FLAG 944 640 0
FLAG 464 0 0
FLAG 640 48 0
SYMBOL voltage 640 -48 R0
WINDOW 123 0 0 Left 0
WINDOW 39 0 0 Left 0
SYMATTR InstName V1
SYMATTR Value 9
SYMBOL cap 272 16 R0
SYMATTR InstName C1
SYMATTR Value 33µ
SYMBOL zener 0 64 R180
WINDOW 0 24 64 Left 2
WINDOW 3 24 0 Left 2
SYMATTR InstName D1
SYMATTR Value CDZV12B
SYMATTR Description Diode
SYMATTR Type diode
SYMBOL diode 112 96 R180
WINDOW 0 24 64 Left 2
WINDOW 3 24 0 Left 2
SYMATTR InstName D2
SYMATTR Value 1N4148
SYMBOL res -256 -32 R0
SYMATTR InstName R1
SYMATTR Value 10k
SYMBOL res -256 256 R0
SYMATTR InstName R2
SYMATTR Value 10k
SYMBOL diode 112 384 R180
WINDOW 0 24 64 Left 2
WINDOW 3 24 0 Left 2
SYMATTR InstName D3
SYMATTR Value 1N4148
SYMBOL cap -128 288 R0
SYMATTR InstName C2
SYMATTR Value 33µ
SYMBOL OpAmps\\UniversalOpAmp 192 176 M180
SYMATTR InstName U2
SYMBOL OpAmps\\UniversalOpAmp 464 80 M180
SYMATTR InstName U3
SYMBOL cap -16 176 R90
WINDOW 0 0 32 VBottom 2
WINDOW 3 32 32 VTop 2
SYMATTR InstName C3
SYMATTR Value 10n
SYMBOL cap 352 160 R90
WINDOW 0 0 32 VBottom 2
WINDOW 3 32 32 VTop 2
SYMATTR InstName C4
SYMATTR Value 10µ
SYMBOL cap 256 368 R90
WINDOW 0 0 32 VBottom 2
WINDOW 3 32 32 VTop 2
SYMATTR InstName C5
SYMATTR Value 10n
SYMBOL res 272 272 R90
WINDOW 0 0 56 VBottom 2
WINDOW 3 32 56 VTop 2
SYMATTR InstName R3
SYMATTR Value 1Meg
SYMBOL res 384 160 R0
SYMATTR InstName R4
SYMATTR Value 3.9k
SYMBOL res 384 416 R0
SYMATTR InstName R5
SYMATTR Value 3.9k
SYMBOL res 608 320 R90
WINDOW 0 0 56 VBottom 2
WINDOW 3 32 56 VTop 2
SYMATTR InstName R6
SYMATTR Value 3.9k
SYMBOL res 784 160 R0
SYMATTR InstName R7
SYMATTR Value 2.2k
SYMBOL res 784 416 R0
SYMATTR InstName R8
SYMATTR Value 2.2k
SYMBOL cap 720 320 R90
WINDOW 0 0 32 VBottom 2
WINDOW 3 32 32 VTop 2
SYMATTR InstName C6
SYMATTR Value 6.8n
SYMBOL res 640 528 R180
WINDOW 0 36 76 Left 2
WINDOW 3 36 40 Left 2
SYMATTR InstName R11
SYMATTR Value 1Meg
SYMBOL pot 384 272 R0
WINDOW 3 32 10 Left 2
SYMATTR InstName U1
SYMBOL pot 816 272 M0
WINDOW 3 -235 56 Left 2
SYMATTR InstName U4
SYMBOL cap 304 288 R0
SYMATTR InstName C7
SYMATTR Value 220n
SYMBOL pot 1120 336 R0
WINDOW 3 -70 115 Left 2
SYMATTR InstName U5
SYMBOL res 1120 208 R0
SYMATTR InstName R9
SYMATTR Value 100
SYMBOL cap 1120 96 R0
SYMATTR InstName C8
SYMATTR Value 10µ
TEXT 1256 400 Left 2 ;out
TEXT -432 664 Left 2 !.tran 1s
