Version 4.1
SHEET 1 880 680
WIRE -16 0 -64 0
WIRE -16 16 -16 0
WIRE 96 32 0 32
WIRE -64 48 -64 0
WIRE 368 144 32 144
WIRE 32 160 32 144
WIRE -64 176 -64 128
WIRE 0 176 0 32
WIRE 0 176 -64 176
WIRE 96 192 96 112
WIRE 96 192 64 192
WIRE 144 192 96 192
WIRE 0 208 -320 208
WIRE 368 256 368 224
WIRE 400 256 368 256
WIRE 368 272 368 256
WIRE 32 352 32 224
WIRE 368 352 32 352
FLAG -320 288 0
FLAG -16 16 0
FLAG 144 192 output
IOPIN 144 192 Out
FLAG 400 256 0
SYMBOL voltage 368 128 R0
WINDOW 123 0 0 Left 0
WINDOW 39 0 0 Left 0
SYMATTR InstName V1
SYMATTR Value 9v
SYMBOL OpAmps\\OP482 32 128 R0
SYMATTR InstName U1
SYMBOL voltage -320 192 R0
WINDOW 123 24 44 Left 2
WINDOW 39 0 0 Left 0
SYMATTR Value2 AC 1 0
SYMATTR InstName V2
SYMATTR Value ""
SYMBOL res -80 32 R0
SYMATTR InstName R2
SYMATTR Value 1k
SYMBOL res 80 16 R0
SYMATTR InstName R1
SYMATTR Value 1k
SYMBOL voltage 368 256 R0
WINDOW 123 0 0 Left 0
WINDOW 39 0 0 Left 0
SYMATTR InstName V3
SYMATTR Value 9
TEXT -264 304 Left 2 !.ac dec 10 20 20000
